Casos/pglib_opf_case2383wp_k/datosNodos.csv
bus_i;type;Pd;Qd;Gs;Bs;area;Vm;Va;baseKV;zone;Vmax;Vmin
1;1;0;0;0;0;1;1.03;0;220;1;1.11;0.95
2;1;0;0;0;0;1;1.03;0;220;1;1.11;0.95
3;1;0;0;0;0;1;1.03;0;220;1;1.11;0.95
4;1;0;0;0;0;1;1.03;0;220;1;1.11;0.95
5;1;0;0;0;0;1;1.03;0;220;1;1.11;0.95
6;1;0;0;0;0;1;1;0;400;1;1.05;0.95
7;1;0;0;0;0;1;1.03;0;220;1;1.11;0.95
8;1;0;0;0;0;1;1;0;400;1;1.05;0.95
9;1;0;0;0;0;1;1;0;400;1;1.05;0.95
10;2;12.23;9;0;0;1;1.03;0;220;1;1.11;0.95
11;1;0;0;0;0;1;1.03;0;220;1;1.11;0.95
12;1;0;0;0;0;1;1.03;0;220;1;1.11;0.95
13;1;0;0;0;0;1;1.03;0;220;1;1.11;0.95
14;1;0;0;0;0;1;1.03;0;220;1;1.11;0.95
15;1;0;0;0;0;1;1;0;400;1;1.05;0.95
16;2;54.88;100;0;0;1;1.03;0;220;1;1.11;0.95
17;2;77;150;0;0;1;1.03;0;220;1;1.11;0.95
18;3;153;350;0;0;1;1;0;400;1;1.05;0.95
19;1;0;0;0;0;1;1.03;0;220;1;1.11;0.95
20;1;0;0;0;0;1;1;0;400;1;1.05;0.95
21;1;0;0;0;0;1;1.03;0;220;1;1.11;0.95
22;1;0;0;0;0;1;1.03;0;220;1;1.11;0.95
23;1;0;0;0;0;1;1.03;0;220;2;1.11;0.95
24;1;0;0;0;0;1;1.03;0;220;2;1.11;0.95
25;1;0;0;0;0;1;1.03;0;220;2;1.11;0.95
26;1;0;0;0;0;1;1.03;0;220;2;1.11;0.95
27;1;0;0;0;0;1;1.03;0;220;2;1.11;0.95
28;1;0;0;0;0;1;1.03;0;220;2;1.11;0.95
29;2;25.98;60;0;0;1;1.03;0;220;2;1.11;0.95
30;2;25.98;60;0;0;1;1.03;0;220;2;1.11;0.95
31;2;20.98;50;0;0;1;1;0;400;2;1.05;0.95
32;1;0;0;0;0;1;1;0;400;2;1.05;0.95
33;1;0;0;0;0;1;1.03;0;220;2;1.11;0.95
34;1;0;0;0;0;1;1;0;400;2;1.05;0.95
35;1;0;0;0;0;1;1;0;400;2;1.05;0.95
36;1;0;0;0;0;1;1;0;400;2;1.05;0.95
37;1;0;0;0;0;1;1.03;0;220;2;1.11;0.95
38;1;0;0;0;0;1;1.03;0;220;2;1.11;0.95
39;1;0;0;0;0;1;1;0;400;2;1.05;0.95
40;1;0;0;0;0;1;1;0;400;2;1.05;0.95
41;2;11.99;30;0;0;1;1.03;0;220;2;1.11;0.95
42;2;11.99;30;0;0;1;1.03;0;220;2;1.11;0.95
43;2;23.98;60;0;0;1;1;0;400;2;1.05;0.95
44;2;23.98;60;0;0;1;1;0;400;2;1.05;0.95
45;2;159.84;75;0;0;1;1.03;0;220;2;1.11;0.95
46;1;0;0;0;0;1;1.03;0;220;2;1.11;0.95
47;1;0;0;0;0;1;1.03;0;220;2;1.11;0.95
48;1;0;0;0;0;1;1.03;0;220;2;1.11;0.95
49;1;0;0;0;0;1;1.03;0;220;2;1.11;0.95
50;1;0;0;0;0;1;1;0;400;2;1.05;0.95
51;1;0;0;0;0;1;1;0;400;2;1.05;0.95
52;1;0;0;0;0;1;1.03;0;220;2;1.11;0.95
53;1;0;0;0;0;1;1.03;0;220;2;1.11;0.95
54;1;0;0;0;0;1;1.03;0;220;2;1.11;0.95
55;1;0;0;0;0;1;1.03;0;220;2;1.11;0.95
56;1;0;0;0;0;1;1.03;0;220;3;1.11;0.95
57;1;22.98;10.96;0;0;1;1.03;0;220;3;1.11;0.95
58;1;21.98;5.79;0;0;1;1.03;0;220;3;1.11;0.95
59;1;0;0;0;0;1;1.03;0;220;3;1.11;0.95
60;1;0;0;0;0;1;1.03;0;220;3;1.11;0.95
61;1;0;0;0;0;1;1.03;0;220;3;1.11;0.95
62;1;0;0;0;0;1;1.03;0;220;3;1.11;0.95
63;2;37.37;52.69;0;0;1;1.03;0;220;3;1.11;0.95
64;2;35.37;55.32;0;0;1;1.03;0;220;3;1.11;0.95
65;1;13.39;2.02;0;0;1;1.03;0;220;3;1.11;0.95
66;1;0;0;0;0;1;1.03;0;220;3;1.11;0.95
67;2;60.4;92.1;0;0;1;1;0;400;3;1.05;0.95
68;1;0;0;0;0;1;1.03;0;220;3;1.11;0.95
69;1;0;0;0;0;1;1.03;0;220;3;1.11;0.95
70;1;0;0;0;0;1;1.03;0;220;3;1.11;0.95
71;1;0;0;0;0;1;1.03;0;220;3;1.11;0.95
72;1;0;0;0;0;1;1.03;0;220;3;1.11;0.95
73;1;0;0;0;0;1;1.03;0;220;3;1.11;0.95
74;1;0;0;0;0;1;1.03;0;220;3;1.11;0.95
75;1;0;0;0;0;1;1;0;400;3;1.05;0.95
76;1;0;0;0;0;1;1;0;400;3;1.05;0.95
77;1;0;0;0;0;1;1.03;0;220;3;1.11;0.95
78;1;0;0;0;0;1;1.03;0;220;3;1.11;0.95
79;1;0;0;0;0;1;1.03;0;220;3;1.11;0.95
80;1;0;0;0;0;1;1.03;0;220;3;1.11;0.95
81;1;0;0;0;0;1;1.03;0;220;3;1.11;0.95
82;1;0;0;0;0;1;1.03;0;220;3;1.11;0.95
83;2;15.99;22.97;0;0;1;1.03;0;220;3;1.11;0.95
84;2;15.79;22.27;0;0;1;1.03;0;220;3;1.11;0.95
85;2;9.99;17.01;0;0;1;1.03;0;220;3;1.11;0.95
86;2;9.99;16.66;0;0;1;1.03;0;220;3;1.11;0.95
87;1;11.09;16.22;0;0;1;1.03;0;220;3;1.11;0.95
88;1;0;0;0;0;1;1.03;0;220;3;1.11;0.95
89;1;0;0;0;0;1;1.03;0;220;3;1.11;0.95
90;1;0;0;0;0;1;1.03;0;220;3;1.11;0.95
91;1;0;0;0;0;1;1.03;0;220;3;1.11;0.95
92;1;0;0;0;0;1;1;0;400;3;1.05;0.95
93;2;9.99;16.39;0;0;1;1.03;0;220;3;1.11;0.95
94;1;0;0;0;0;1;1.03;0;220;3;1.11;0.95
95;2;6.89;8.15;0;0;1;1.03;0;220;3;1.11;0.95
96;1;0;0;0;0;1;1.03;0;220;3;1.11;0.95
97;2;8.69;5.26;0;0;1;1.03;0;220;3;1.11;0.95
98;1;0;0;0;0;1;1;0;400;3;1.05;0.95
99;1;0;0;0;0;1;1;0;400;3;1.05;0.95
100;1;0;0;0;0;1;1;0;400;3;1.05;0.95
101;1;0;0;0;0;1;1;0;400;3;1.05;0.95
102;1;0;0;0;0;1;1.03;0;220;3;1.11;0.95
103;2;18.09;23.76;0;0;1;1.03;0;220;3;1.11;0.95
104;2;33.68;46.11;0;0;1;1.03;0;220;3;1.11;0.95
105;2;33.78;62.95;0;0;1;1;0;400;3;1.05;0.95
106;1;0;0;0;0;1;1;0;400;3;1.05;0.95
107;1;0;0;0;0;1;1.03;0;220;3;1.11;0.95
108;1;0;0;0;0;1;1.03;0;220;3;1.11;0.95
109;2;1;22.36;0;0;1;1.03;0;220;3;1.11;0.95
110;2;1;22.18;0;0;1;1.03;0;220;3;1.11;0.95
111;2;26.49;18;0;0;1;1.03;0;220;4;1.11;0.95
112;1;0;0;0;0;1;1.03;0;220;4;1.11;0.95
113;1;0;0;0;0;1;1.03;0;220;4;1.11;0.95
114;1;0;0;0;0;1;1.03;0;220;4;1.11;0.95
115;1;0;0;0;0;1;1;0;400;4;1.05;0.95
116;1;0;0;0;0;1;1;0;400;4;1.05;0.95
117;1;0;0;0;0;1;1.03;0;220;4;1.11;0.95
118;1;0;0;0;0;1;1.03;0;220;4;1.11;0.95
119;1;0;0;0;0;1;1.03;0;220;4;1.11;0.95
120;1;0;0;0;0;1;1.03;0;220;4;1.11;0.95
121;1;0;0;0;0;1;1.03;0;220;4;1.11;0.95
122;1;0;0;0;0;1;1.03;0;220;4;1.11;0.95
123;2;5.5;7;0;0;1;1.03;0;220;4;1.11;0.95
124;2;8.79;17;0;0;1;1.03;0;220;4;1.11;0.95
125;2;35.7;18.3;0;0;1;1.03;0;220;4;1.11;0.95
126;1;25.28;15.9;0;0;1;1.03;0;220;4;1.11;0.95
127;2;25.71;15.3;0;0;1;1;0;400;4;1.05;0.95
128;1;0;0;0;0;1;1;0;400;4;1.05;0.95
129;1;0;0;0;0;1;1.03;0;220;4;1.11;0.95
130;1;0;0;0;0;1;1.03;0;220;4;1.11;0.95
131;2;68.67;70;0;0;1;1.03;0;220;4;1.11;0.95
132;2;33;45;0;0;1;1.03;0;220;4;1.11;0.95
133;1;0;0;0;0;1;1;0;400;4;1.05;0.95
134;1;0;0;0;0;1;1;0;400;4;1.05;0.95
135;1;0;0;0;0;1;1.03;0;220;4;1.11;0.95
136;1;0;0;0;0;1;1.03;0;220;4;1.11;0.95
137;1;0;0;0;0;1;1;0;400;4;1.05;0.95
138;1;0;0;0;0;1;1;0;400;4;1.05;0.95
139;2;33.2;22.6;0;0;1;1.03;0;220;4;1.11;0.95
140;2;29.23;19.6;0;0;1;1.03;0;220;4;1.11;0.95
141;1;0;0;0;0;1;1.03;0;220;4;1.11;0.95
142;1;0;0;0;0;1;1.03;0;220;4;1.11;0.95
143;1;0;0;0;0;1;1.03;0;220;4;1.11;0.95
144;1;0;0;0;0;1;1.03;0;220;4;1.11;0.95
145;1;0;0;0;0;1;1;0;400;4;1.05;0.95
146;1;0;0;0;0;1;1;0;400;4;1.05;0.95
147;1;0;0;0;0;1;1.03;0;220;4;1.11;0.95
148;1;0;0;0;0;1;1.03;0;220;4;1.11;0.95
149;1;0;0;0;0;1;1.03;0;220;4;1.11;0.95
150;1;0;0;0;0;1;1.03;0;220;4;1.11;0.95
151;1;0;0;0;0;1;1.03;0;220;4;1.11;0.95
152;1;0;0;0;0;1;1.03;0;220;4;1.11;0.95
153;1;0;0;0;0;1;1.03;0;220;4;1.11;0.95
154;1;0;0;0;0;1;1.03;0;220;4;1.11;0.95
155;1;0;0;0;0;1;1.03;0;220;5;1.11;0.95
156;1;0;0;0;0;1;1.03;0;220;5;1.11;0.95
157;1;0;0;0;0;1;1;0;400;5;1.05;0.95
158;1;0;0;0;0;1;1;0;400;5;1.05;0.95
159;1;0;0;0;0;1;1;0;400;5;1.05;0.95
160;1;0;0;0;0;1;1;0;400;5;1.05;0.95
161;1;0;0;0;0;1;1.03;0;220;5;1.11;0.95
162;1;0;0;0;0;1;1.03;0;220;5;1.11;0.95
163;1;0;0;0;0;1;1.03;0;220;5;1.11;0.95
164;1;0;0;0;0;1;1.03;0;220;5;1.11;0.95
165;1;0;0;0;0;1;1;0;400;5;1.05;0.95
166;1;0;0;0;0;1;1.03;0;220;5;1.11;0.95
167;1;0;0;0;0;1;1.03;0;220;5;1.11;0.95
168;1;0;0;0;0;1;1;0;400;5;1.05;0.95
169;1;0;0;0;0;1;1;0;400;5;1.05;0.95
170;1;0;0;0;0;1;1.03;0;220;5;1.11;0.95
171;1;0;0;0;0;1;1.03;0;220;5;1.11;0.95
172;1;0;0;0;0;1;1.03;0;220;5;1.11;0.95
173;1;0;0;0;0;1;1.03;0;220;5;1.11;0.95
174;1;0;0;0;0;1;1.03;0;220;5;1.11;0.95
175;1;0;0;0;0;1;1.03;0;220;5;1.11;0.95
176;2;0;40;0;0;1;1;0;400;5;1.05;0.95
177;2;0;40;0;0;1;1;0;400;5;1.05;0.95
178;1;0;0;0;0;1;1.03;0;220;5;1.11;0.95
179;1;0;0;0;0;1;1.03;0;220;5;1.11;0.95
180;2;339.85;49.6;0;0;2;1;0;400;6;1.05;0.95
181;2;0;0;0;0;3;1.03;0;220;6;1.11;0.95
182;2;0;0;0;0;5;1;0;400;6;1.05;0.95
183;1;150;0;0;0;3;1;0;400;6;1.05;0.95
184;2;317.34;50.3;0;0;2;1.03;0;220;6;1.11;0.95
185;2;362.43;36.7;0;0;2;1;0;400;6;1.05;0.95
186;2;33.33;1;0;0;5;1.03;0;220;6;1.11;0.95
187;1;7.12;1.5;0;0;1;1.035;0;110;1;1.12;0.95
188;1;7.63;1;0;0;1;1.035;0;110;1;1.12;0.95
189;1;9.77;8.7;0;0;1;1.035;0;110;1;1.12;0.95
190;1;6.12;1.5;0;0;1;1.035;0;110;1;1.12;0.95
191;1;6.12;1.6;0;0;1;1.035;0;110;1;1.12;0.95
192;2;30.56;12;0;0;1;1.035;0;110;1;1.12;0.95
193;1;15.28;3;0;0;1;1.035;0;110;1;1.12;0.95
194;1;0;0;0;0;1;1.035;0;110;1;1.12;0.95
195;1;8.14;2;0;0;1;1.035;0;110;1;1.12;0.95
196;2;6.92;1.5;0;0;1;1.035;0;110;1;1.12;0.95
197;1;6.92;1.5;0;0;1;1.035;0;110;1;1.12;0.95
198;2;12.32;1.7;0;0;1;1.035;0;110;1;1.12;0.95
199;1;1.43;0.5;0;0;1;1.035;0;110;1;1.12;0.95
200;1;1.08;0.5;0;0;1;1.035;0;110;1;1.12;0.95
...
